ldnr_case5_ieee.m
function mpc = ldnr_case5_ieee
mpc.version = '2';
mpc.baseMVA = 10.0;

%% bus data
%	bus_i	type	Pd	Qd	Gs	Bs	area	Vm	Va	baseKV	zone	Vmax	Vmin
mpc.bus = [
	1	 3	 0.0	 0.0	     0.0	 0.0	 1	    1.00000	    0.00000	 12.66	 1	    1	    1;
	2	 1	 0.3532	 0.09861	 0.0	 0.0	 1	    1.00000	    0.00000	 12.66	 1	    1.10000	    0.90000;
	3	 1	 0.2423	 0.06475	 0.0	 0.0	 1	    1.00000	    0.00000	 12.66	 1	    1.10000	    0.90000;
	4	 1	 0.4104	 0.13147	 0.0	 0.0	 1	    1.00000	    0.00000	 12.66	 1	    1.10000	    0.90000;
	5	 1	 0.1967	 0.02943	 0.0	 0.0	 1	    1.00000	    0.00000	 12.66	 1	    1.10000	    0.90000;
];

%% generator data
%	bus	Pg	Qg	Qmax	Qmin	Vg	mBase	status	Pmax	Pmin
mpc.gen = [
	1	 10.0	 10.0	 30.0	 -30.0	 1.0	 1.0	 1	 100.0	 0.0;
];

%% generator cost data
%	2	startup	shutdown	n	c(n-1)	...	c0
mpc.gencost = [
	2	 0.0	 0.0	 3	   0.000000	  20.000000	   0.000000;
];

%% branch data
%	fbus	tbus	r	x	b	rateA	rateB	rateC	ratio	angle	status	angmin	angmax
mpc.branch = [
	1	 2	 0.00281	 0.0281	 0.00712	 100.0	 100.0	 100.0	 0.0	 0.0	 1	 -360.0	 360.0;
	1	 4	 0.00304	 0.0304	 0.00658	 100.0	 100.0	 100.0	 0.0	 0.0	 1	 -360.0	 360.0;
	1	 5	 0.00064	 0.0064	 0.03126	 100.0	 100.0	 100.0	 0.0	 0.0	 1	 -360.0	 360.0;
	2	 3	 0.00108	 0.0108	 0.01852	 100.0	 100.0	 100.0	 0.0	 0.0	 1	 -360.0	 360.0;
	3	 4	 0.00297	 0.0297	 0.00674	 100.0	 100.0	 100.0	 0.0	 0.0	 1	 -360.0	 360.0;
	4	 5	 0.00297	 0.0297	 0.00674	 100.0	 100.0	 100.0	 0.0	 0.0	 1	 -360.0	 360.0;
    2    4   0.00297	 0.0297	 0.00474	 100.0	 100.0	 100.0	 0.0	 0.0	 1	 -360.0	 360.0;
];
